Version 4
SHEET 1 1964 680
WIRE 1072 -384 1072 -432
WIRE 1072 -272 1072 -304
WIRE 1184 -272 1072 -272
WIRE 1296 -272 1264 -272
WIRE 672 -240 624 -240
WIRE 752 -240 736 -240
WIRE 912 -240 752 -240
WIRE 1072 -176 1072 -272
WIRE 1104 -176 1072 -176
WIRE 752 -160 752 -240
WIRE 784 -160 752 -160
WIRE 1296 -160 1296 -272
WIRE 1296 -160 1168 -160
WIRE 1328 -160 1296 -160
WIRE 1376 -160 1328 -160
WIRE 912 -144 912 -240
WIRE 912 -144 848 -144
WIRE 992 -144 912 -144
WIRE 1104 -144 992 -144
WIRE -32 -128 -64 -128
WIRE 48 -128 -32 -128
WIRE 448 -128 384 -128
WIRE 528 -128 448 -128
WIRE 624 -128 624 -240
WIRE 624 -128 608 -128
WIRE 656 -128 624 -128
WIRE 752 -128 736 -128
WIRE 784 -128 752 -128
WIRE 1136 -80 1136 -128
WIRE 1376 -80 1376 -160
WIRE 816 -64 816 -112
WIRE 1568 -64 1568 -128
WIRE 752 -48 752 -128
WIRE -64 -32 -64 -128
WIRE 384 -32 384 -128
WIRE 1376 64 1376 0
WIRE 1568 64 1568 16
WIRE -64 96 -64 48
WIRE 384 96 384 48
WIRE 752 96 752 16
FLAG -64 96 0
FLAG 384 96 0
FLAG -32 -128 in
FLAG 448 -128 out
FLAG 992 -144 sine
FLAG 1136 -80 0
FLAG 1568 64 0
FLAG 1568 -128 V+
FLAG 1136 -192 V+
FLAG 1072 -432 0
FLAG 1328 -160 Vf
FLAG 1376 64 0
FLAG 752 96 0
FLAG 816 -176 V+
FLAG 816 -64 0
SYMBOL voltage -64 -48 R0
WINDOW 123 0 0 Left 0
WINDOW 39 0 0 Left 0
SYMATTR InstName V1
SYMATTR Value SINE(1.65 1.65 90)
SYMBOL bv 384 -48 R0
SYMATTR InstName B1
SYMATTR Value V=3.3*((time/period-int(time/period))<V(in)/3.3)
SYMBOL OpAmps\\OP292 1136 -224 R0
SYMATTR InstName U1
SYMBOL voltage 1568 -80 R0
WINDOW 123 0 0 Left 0
WINDOW 39 0 0 Left 0
SYMATTR InstName V2
SYMATTR Value 11
SYMBOL res 1280 -288 R90
WINDOW 0 0 56 VBottom 2
WINDOW 3 32 56 VTop 2
SYMATTR InstName R2
SYMATTR Value 2k
SYMBOL res 1088 -288 R180
WINDOW 0 36 76 Left 2
WINDOW 3 36 40 Left 2
SYMATTR InstName R3
SYMATTR Value 1k
SYMBOL res 1360 -96 R0
SYMATTR InstName R4
SYMATTR Value 100k
SYMBOL OpAmps\\OP292 816 -208 R0
SYMATTR InstName U2
SYMBOL res 624 -144 R90
WINDOW 0 0 56 VBottom 2
WINDOW 3 32 56 VTop 2
SYMATTR InstName R5
SYMATTR Value 100k
SYMBOL res 752 -144 R90
WINDOW 0 0 56 VBottom 2
WINDOW 3 32 56 VTop 2
SYMATTR InstName R6
SYMATTR Value 100k
SYMBOL cap 736 -48 R0
SYMATTR InstName C2
SYMATTR Value {X}
SYMBOL cap 736 -256 R90
WINDOW 0 0 32 VBottom 2
WINDOW 3 32 32 VTop 2
SYMATTR InstName C3
SYMATTR Value {X}
TEXT -96 120 Left 2 !.tran 0 25ms 0ms 100ns
TEXT -368 -72 Left 2 !.param period=0.027ms
TEXT 856 8 Left 2 !.step param X list 300p 680p 1n 4.7n
